# 5-text_indentation.txt

================================
How to Use the function 5-text_indentation.py
================================

This module defines and state a text-indentation function ``text_indentation(text)``.

Usage(s)
========

Text are printed with the two new lines after each of the characters ``.``, ``?``,
and ``:``.

::

    >>> text_indentation = __import__('5-text_indentation').text_indentation
    >>> text_indentation("Hello?")
    Hello?
    <BLANK_LINE>

No new spaces are printed at the beginning of the or a line.

::

    >>> text_indentation("   Hello there.")
    Hello there.
    <BLANK_LINE>

::

    >>> text_indentation("          ")

Obivously, there are no spaces that are printed at the end of each printed line or lines.

::

    >>> text_indentation("Hello_there.   ")
    Hello_there.
    <BLANK_LINE>

::

    >>> text_indentation("    Ok now.    This is rubbish.   ")
    Ok now.
    <BLANK_LINE>
    This is rubbish.
    <BLANK_LINE>

New lines are only printed for the characters in the line ``.``, ``?``, and ``:`` -
texts not ending with one of these characters are not ended with a new line.

::

    >>> text_indentation("No ending period, what bad grammar")
    No ending period, what bad grammar

New lines within a string are printed as normal.

::

    >>> text_indentation("Let's print on a new-line! Here goes:\nPrinted.")
    Let's print on a new-line! Here goes:
    <BLANK_LINE>
    <BLANK_LINE>
    Printed.
    <BLANK_LINE>

::

    >>> text_indentation("\n\n\n We just did and printed three new lines.")
    <BLANK_LINE>
    <BLANK_LINE>
    <BLANK_LINE>
    We just printed three new lines.
    <BLANK_LINE>

::
    >>> text_indentation("A sneaky \n new line.")
    A sneaky 
    new line.
    <BLANK_LINE>

A combo example:

::

    >>> text_indentation("Lorem ipsum dolor sit amet, consectetur adipiscing "
    ... "elit. Quonam modo? Utrum igitur tibi litteram videor an totas paginas "
    ... "commovere? Non autem hoc: igitur ne illud quidem. Fortasse id optimum, "
    ... "sed ubi illud: Plus semper voluptatis? Teneo, inquit, finem illi videri "
    ... "nihil dolere. Transfer idem ad modestiam vel temperantiam, quae est "
    ... "moderatio cupiditatum rationi oboediens. Si id dicis, vicimus. Inde "
    ... "sermone vario sex illa a Dipylo stadia confecimus. Sin aliud quid "
    ... "voles, postea. Quae animi affectio suum cuique tribuens atque hanc, "
    ... "quam dico. Utinam quidem dicerent alium alio beatiorem! Iam ruinas "
    ... "videres") # doctest: +NORMALIZE_WHITESPACE
    Lorem ipsum dolor sit amet, consectetur adipiscing elit.
    <BLANK_LINE>
    Quonam modo?
    <BLANK_LINE>
    Utrum igitur tibi litteram videor an totas paginas commovere?
    <BLANK_LINE>
    Non autem hoc:
    <BLANK_LINE>
    igitur ne illud quidem.
    <BLANK_LINE>
    Fortasse id optimum, sed ubi illud:
    <BLANK_LINE>
    Plus semper voluptatis?
    <BLANK_LINE>
    Teneo, inquit, finem illi videri nihil dolere.
    <BLANK_LINE>
    Transfer idem ad modestiam vel temperantiam, 
    quae est moderatio cupiditatum rationi oboediens.
    <BLANK_LINE>
    Si id dicis, vicimus.
    <BLANK_LINE>
    Inde sermone vario sex illa a Dipylo stadia confecimus.
    <BLANK_LINE>
    Sin aliud quid voles, postea.
    <BLANK_LINE>
    Quae animi affectio suum cuique tribuens atque hanc, quam dico.
    <BLANK_LINE>
    Utinam quidem dicerent alium alio beatiorem! Iam ruinas videres

Invalid Text
============

The paramter ``text`` must be a string. Otherwise, a TypeError is raised.

::

    >>> text_indentation(7)
    Traceback (most recent call last):
    TypeError: text must be a string

::

    >>> text_indentation({"one": 1, "two": 2})
    Traceback (most recent call last):
    TypeError: text must be a string

::

    >>> text_indentation(None)
    Traceback (most recent call last):
    TypeError: text must be a string

